Course Project/pst_for_athul/lf_rep.txt
inner load flow iterations
     5

 tap iterations 
     1

                             LOAD-FLOW STUDY
                    REPORT OF POWER FLOW CALCULATIONS 
 
25-Aug-2017
SWING BUS                  : BUS 1 
NUMBER OF ITERATIONS       : 5 
SOLUTION TIME              : 0.054 sec.
TOTAL TIME                 : 0.161 sec.
TOTAL REAL POWER LOSSES    : 0.697427.
TOTAL REACTIVE POWER LOSSES: 11.5892.

                                      GENERATION             LOAD
       BUS     VOLTS     ANGLE      REAL  REACTIVE      REAL  REACTIVE 
    1.0000    1.0300   18.5000    7.5374    1.9965         0         0
    2.0000    1.0100    7.4165    7.0000    2.3772         0         0
    3.0000    0.9623   -8.1140         0         0    0.0000    0.0000
    4.0000    0.9543  -12.4855         0         0   14.0000    1.0000
   10.0000    1.0051   11.5161         0         0    0.0000   -0.0000
   11.0000    1.0300   15.0708    7.1600    1.1386         0         0
   12.0000    1.0100    5.1194    7.0000    0.5419         0         0
   13.0000    1.0148   -9.4292         0         0    0.0000    0.0000
   14.0000    1.0075  -13.3548         0         0   14.0000    1.0000
   20.0000    0.9776    0.6169         0         0    0.0000    0.0000
  101.0000    1.0500   -9.1454   -0.0000   -0.2817         0         0
  110.0000    1.0182    8.5238         0         0    0.0000   -0.0000
  120.0000    1.0077   -1.4760         0         0    0.0000   -0.0000

                      LINE FLOWS                     
      LINE  FROM BUS    TO BUS      REAL  REACTIVE   
    1.0000    1.0000   10.0000    7.5374    1.9965
    2.0000    2.0000   20.0000    7.0000    2.3772
    3.0000    3.0000    4.0000   14.0000    2.0816
    4.0000    3.0000   20.0000  -14.1759    1.0342
    5.0000    3.0000  101.0000    0.0879   -0.8633
    6.0000    3.0000  101.0000    0.0879   -0.8633
    7.0000   10.0000   20.0000    7.5374    1.0394
    8.0000   11.0000  110.0000    7.1600    1.1386
    9.0000   12.0000  120.0000    7.0000    0.5419
   10.0000   13.0000   14.0000   14.0000    1.9704
   11.0000   13.0000  101.0000   -0.0796   -0.4154
   12.0000   13.0000  101.0000   -0.0796   -0.4154
   13.0000   13.0000  120.0000  -13.8408    3.0830
   14.0000  110.0000  120.0000    7.1600    0.3112

    1.0000   10.0000    1.0000   -7.5374   -1.0394
    2.0000   20.0000    2.0000   -7.0000   -1.4825
    3.0000    4.0000    3.0000  -14.0000   -1.0000
    4.0000   20.0000    3.0000   14.3940    1.1310
    5.0000  101.0000    3.0000   -0.0807    0.7402
    6.0000  101.0000    3.0000   -0.0807    0.7402
    7.0000   20.0000   10.0000   -7.3940    0.3515
    8.0000  110.0000   11.0000   -7.1600   -0.3112
    9.0000  120.0000   12.0000   -7.0000    0.2651
   10.0000   14.0000   13.0000  -14.0000   -1.0000
   11.0000  101.0000   13.0000    0.0807    0.2215
   12.0000  101.0000   13.0000    0.0807    0.2215
   13.0000  120.0000   13.0000   14.0361   -1.1480
   14.0000  120.0000  110.0000   -7.0361    0.8829

inner load flow iterations
     5

 tap iterations 
     1

                             LOAD-FLOW STUDY
                    REPORT OF POWER FLOW CALCULATIONS 
 
25-Aug-2017
SWING BUS                  : BUS 1 
NUMBER OF ITERATIONS       : 5 
SOLUTION TIME              : 0.014 sec.
TOTAL TIME                 : 0.032 sec.
TOTAL REAL POWER LOSSES    : 0.697427.
TOTAL REACTIVE POWER LOSSES: 11.5892.

                                      GENERATION             LOAD
       BUS     VOLTS     ANGLE      REAL  REACTIVE      REAL  REACTIVE 
    1.0000    1.0300   18.5000    7.5374    1.9965         0         0
    2.0000    1.0100    7.4165    7.0000    2.3772         0         0
    3.0000    0.9623   -8.1140         0         0    0.0000    0.0000
    4.0000    0.9543  -12.4855         0         0   14.0000    1.0000
   10.0000    1.0051   11.5161         0         0    0.0000   -0.0000
   11.0000    1.0300   15.0708    7.1600    1.1386         0         0
   12.0000    1.0100    5.1194    7.0000    0.5419         0         0
   13.0000    1.0148   -9.4292         0         0    0.0000    0.0000
   14.0000    1.0075  -13.3548         0         0   14.0000    1.0000
   20.0000    0.9776    0.6169         0         0    0.0000    0.0000
  101.0000    1.0500   -9.1454   -0.0000   -0.2817         0         0
  110.0000    1.0182    8.5238         0         0    0.0000   -0.0000
  120.0000    1.0077   -1.4760         0         0    0.0000   -0.0000

                      LINE FLOWS                     
      LINE  FROM BUS    TO BUS      REAL  REACTIVE   
    1.0000    1.0000   10.0000    7.5374    1.9965
    2.0000    2.0000   20.0000    7.0000    2.3772
    3.0000    3.0000    4.0000   14.0000    2.0816
    4.0000    3.0000   20.0000  -14.1759    1.0342
    5.0000    3.0000  101.0000    0.0879   -0.8633
    6.0000    3.0000  101.0000    0.0879   -0.8633
    7.0000   10.0000   20.0000    7.5374    1.0394
    8.0000   11.0000  110.0000    7.1600    1.1386
    9.0000   12.0000  120.0000    7.0000    0.5419
   10.0000   13.0000   14.0000   14.0000    1.9704
   11.0000   13.0000  101.0000   -0.0796   -0.4154
   12.0000   13.0000  101.0000   -0.0796   -0.4154
   13.0000   13.0000  120.0000  -13.8408    3.0830
   14.0000  110.0000  120.0000    7.1600    0.3112

    1.0000   10.0000    1.0000   -7.5374   -1.0394
    2.0000   20.0000    2.0000   -7.0000   -1.4825
    3.0000    4.0000    3.0000  -14.0000   -1.0000
    4.0000   20.0000    3.0000   14.3940    1.1310
    5.0000  101.0000    3.0000   -0.0807    0.7402
    6.0000  101.0000    3.0000   -0.0807    0.7402
    7.0000   20.0000   10.0000   -7.3940    0.3515
    8.0000  110.0000   11.0000   -7.1600   -0.3112
    9.0000  120.0000   12.0000   -7.0000    0.2651
   10.0000   14.0000   13.0000  -14.0000   -1.0000
   11.0000  101.0000   13.0000    0.0807    0.2215
   12.0000  101.0000   13.0000    0.0807    0.2215
   13.0000  120.0000   13.0000   14.0361   -1.1480
   14.0000  120.0000  110.0000   -7.0361    0.8829

inner load flow iterations
     3

 tap iterations 
     1

                             LOAD-FLOW STUDY
                    REPORT OF POWER FLOW CALCULATIONS 
 
25-Aug-2017
SWING BUS                  : BUS 1 
NUMBER OF ITERATIONS       : 3 
SOLUTION TIME              : 0.003 sec.
TOTAL TIME                 : 0.005 sec.
TOTAL REAL POWER LOSSES    : 0.851066.
TOTAL REACTIVE POWER LOSSES: 13.0914.

                                      GENERATION             LOAD
       BUS     VOLTS     ANGLE      REAL  REACTIVE      REAL  REACTIVE 
    1.0000    1.0100   18.5000    7.2611    1.2712         0         0
    2.0000    1.0100    7.7249    7.0000    1.9420         0         0
    3.0000    0.9791   -7.4406         0         0   -0.0000   -0.0000
    4.0000    0.9980  -10.2317         0         0    9.7600    1.0000
   10.0000    0.9962   11.5783         0         0   -0.0000    0.0000
   11.0000    1.0100   -9.0125    7.0000    1.1342         0         0
   12.0000    1.0100  -19.1203    7.0000    1.7631         0         0
   13.0000    0.9833  -34.0630         0         0    0.0000    0.0000
   14.0000    1.0062  -39.0204         0         0   17.6500    1.0000
   20.0000    0.9847    0.9748         0         0    0.0000    0.0000
  101.0000    1.0003  -21.0539         0         0         0         0
  110.0000    0.9980  -15.6725         0         0    0.0000    0.0000
  120.0000    0.9877  -25.8502         0         0   -0.0000    0.0000

                      LINE FLOWS                     
      LINE  FROM BUS    TO BUS      REAL  REACTIVE   
    1.0000    1.0000   10.0000    7.2611    1.2712
    2.0000    2.0000   20.0000    7.0000    1.9420
    3.0000    3.0000    4.0000    9.7600    1.4832
    4.0000    3.0000   20.0000  -13.9220    1.8714
    5.0000    3.0000  101.0000    2.0810   -0.2394
    6.0000    3.0000  101.0000    2.0810   -0.2394
    7.0000   10.0000   20.0000    7.2611    0.3816
    8.0000   11.0000  110.0000    7.0000    1.1342
    9.0000   12.0000  120.0000    7.0000    1.7631
   10.0000   13.0000  101.0000   -1.9853    0.1825
   11.0000   13.0000  101.0000   -1.9853    0.1825
   12.0000   13.0000   14.0000   17.6500    2.5435
   13.0000   13.0000  120.0000  -13.6793    1.9259
   14.0000  110.0000  120.0000    7.0000    0.3109

    1.0000   10.0000    1.0000   -7.2611   -0.3816
    2.0000   20.0000    2.0000   -7.0000   -1.0781
    3.0000    4.0000    3.0000   -9.7600   -1.0000
    4.0000   20.0000    3.0000   14.1279    0.1704
    5.0000  101.0000    3.0000   -2.0310    0.5502
    6.0000  101.0000    3.0000   -2.0310    0.5502
    7.0000   20.0000   10.0000   -7.1279    0.9077
    8.0000  110.0000   11.0000   -7.0000   -0.3109
    9.0000  120.0000   12.0000   -7.0000   -0.9100
   10.0000  101.0000   13.0000    2.0310    0.0852
   11.0000  101.0000   13.0000    2.0310    0.0852
   12.0000   14.0000   13.0000  -17.6500   -1.0000
   13.0000  120.0000   13.0000   13.8767    0.0312
   14.0000  120.0000  110.0000   -6.8767    0.8787

inner ac load flow failed to converge after 10 iterations
at tap iteration number 1
voltage low changing tap on line
     3

taps reset to

tap =

    0.9688

inner load flow iterations
     5

 tap iterations 
     2

                             LOAD-FLOW STUDY
                    REPORT OF POWER FLOW CALCULATIONS 
 
04-Oct-2017
SWING BUS                  : BUS 1 
NUMBER OF ITERATIONS       : 5 
SOLUTION TIME              : 0 sec.
TOTAL TIME                 : 0.047 sec.
TOTAL REAL POWER LOSSES    : 1.16304.
TOTAL REACTIVE POWER LOSSES: 19.8403.

                                      GENERATION             LOAD
       BUS     VOLTS     ANGLE      REAL  REACTIVE      REAL  REACTIVE 
    1.0000    1.0100   18.5000   13.7950    5.3309         0         0
    2.0000    1.0100  -17.0826    0.7780    4.3622         0         0
    3.0000    0.9300  -27.0972         0         0    0.0000    0.0000
    4.0000    0.9534  -30.1538         0         0    9.7600    1.0000
   10.0000    0.9497    4.6023         0         0    0.0000    0.0000
   11.0000    1.0100  -44.7993    0.7780    0.5748         0         0
   12.0000    1.0100  -33.7497   13.2220    3.0429         0         0
   13.0000    0.9741  -54.9403         0         0    0.0000   -0.0000
   14.0000    0.9966  -59.9928         0         0   17.6500    1.0000
   20.0000    0.9380  -17.8684         0         0    0.0000    0.0000
  101.0000    0.9682  -41.6214         0         0   -0.0000   -0.0000
  110.0000    1.0006  -45.5359         0         0    0.0000   -0.0000
  120.0000    0.9843  -46.5830         0         0    0.0000   -0.0000

                      LINE FLOWS                     
      LINE  FROM BUS    TO BUS      REAL  REACTIVE   
    1.0000    1.0000   10.0000   13.7950    5.3309
    2.0000    2.0000   20.0000    0.7780    4.3622
    3.0000    3.0000    4.0000    9.7600    1.5295
    4.0000    3.0000   20.0000  -13.8126    1.7592
    5.0000    3.0000  101.0000    2.0263   -0.3471
    6.0000    3.0000  101.0000    2.0263   -0.3471
    7.0000   10.0000   20.0000   13.7950    1.7502
    8.0000   11.0000  110.0000    0.7780    0.5748
    9.0000   12.0000  120.0000   13.2220    3.0429
   10.0000   13.0000  101.0000   -1.9275    0.3850
   11.0000   13.0000  101.0000   -1.9275    0.3850
   12.0000   13.0000   14.0000   17.6500    2.5734
   13.0000   13.0000  120.0000  -13.7950    1.4013
   14.0000  110.0000  120.0000    0.7780    0.5595

    1.0000   10.0000    1.0000  -13.7950   -1.7502
    2.0000   20.0000    2.0000   -0.7780   -4.0408
    3.0000    4.0000    3.0000   -9.7600   -1.0000
    4.0000   20.0000    3.0000   14.0368    0.4677
    5.0000  101.0000    3.0000   -1.9732    0.7048
    6.0000  101.0000    3.0000   -1.9732    0.7048
    7.0000   20.0000   10.0000  -13.2588    3.5731
    8.0000  110.0000   11.0000   -0.7780   -0.5595
    9.0000  120.0000   12.0000  -13.2220   -0.0293
   10.0000  101.0000   13.0000    1.9732   -0.1096
   11.0000  101.0000   13.0000    1.9732   -0.1096
   12.0000   14.0000   13.0000  -17.6500   -1.0000
   13.0000  120.0000   13.0000   13.9976    0.6083
   14.0000  120.0000  110.0000   -0.7756   -0.5790

Qg at var limit
Qg at var limit
inner ac load flow failed to converge after 10 iterations
at tap iteration number 1
voltage low changing tap on line
     3

taps reset to

tap =

    0.9688

voltage low changing tap on line
    12

taps reset to

tap =

    0.9626

Qg at var limit
Qg at var limit
inner ac load flow failed to converge after 10 iterations
at tap iteration number 2
voltage low changing tap on line
     3

taps reset to

tap =

    0.9625

voltage low changing tap on line
    12

taps reset to

tap =

    0.9563

Qg at var limit
Qg at var limit
inner ac load flow failed to converge after 10 iterations
at tap iteration number 3
voltage low changing tap on line
     3

taps reset to

tap =

    0.9563

voltage low changing tap on line
    12

taps reset to

tap =

    0.9501

Qg at var limit
Qg at var limit
inner ac load flow failed to converge after 10 iterations
at tap iteration number 4
voltage low changing tap on line
     3

taps reset to

tap =

    0.9500

voltage low changing tap on line
    12

taps reset to

tap =

    0.9438

Qg at var limit
Qg at var limit
inner ac load flow failed to converge after 10 iterations
at tap iteration number 5
voltage low changing tap on line
     3

taps reset to

tap =

    0.9438

voltage low changing tap on line
    12

taps reset to

tap =

    0.9376

Qg at var limit
Qg at var limit
inner ac load flow failed to converge after 10 iterations
at tap iteration number 6
voltage low changing tap on line
     3

taps reset to

tap =

    0.9375

voltage low changing tap on line
    12

taps reset to

tap =

    0.9313

Qg at var limit
Qg at var limit
inner ac load flow failed to converge after 10 iterations
at tap iteration number 7
voltage low changing tap on line
     3

taps reset to

tap =

    0.9313

voltage low changing tap on line
    12

taps reset to

tap =

    0.9251

Qg at var limit
Qg at var limit
inner ac load flow failed to converge after 10 iterations
at tap iteration number 8
voltage low changing tap on line
     3

taps reset to

tap =

    0.9250

voltage low changing tap on line
    12

taps reset to

tap =

    0.9188

Qg at var limit
Qg at var limit
Qg at var limit
inner ac load flow failed to converge after 10 iterations
at tap iteration number 9
voltage high changing tap on line
    12

tap reset to

tap =

    0.9251

voltage low changing tap on line
     3

taps reset to

tap =

    0.9188

Qg at var limit
Qg at var limit
Qg at var limit
inner ac load flow failed to converge after 10 iterations
at tap iteration number 10
voltage low changing tap on line
     3

taps reset to

tap =

    0.9125

voltage low changing tap on line
    12

taps reset to

tap =

    0.9188

tap iteration failed to converge after10 iterations
voltages at

ans =

     2     4    10    11    12    13    14    20   110   120

are at the min limit
the following generators are at their var limits
    bus#    Qg
    2.0000   21.7082
   11.0000   21.5673
   12.0000   23.3529

ac load flow failed to converge
{Error using <a href="matlab:helpUtils.errorDocCallback('loadflow', 'C:\Users\Admin\Documents\School\ltv_pss_paper\pst_archive\pstv3\loadflow.m', 297)" style="font-weight:bold">loadflow</a> (<a href="matlab: opentoline('C:\Users\Admin\Documents\School\ltv_pss_paper\pst_archive\pstv3\loadflow.m',297,0)">line 297</a>)
stop

Error in <a href="matlab:helpUtils.errorDocCallback('lfdemo', 'C:\Users\Admin\Documents\School\ltv_pss_paper\pst_archive\pstv3\lfdemo.m', 36)" style="font-weight:bold">lfdemo</a> (<a href="matlab: opentoline('C:\Users\Admin\Documents\School\ltv_pss_paper\pst_archive\pstv3\lfdemo.m',36,0)">line 36</a>)
[bus_sol,line_sol,line_flow] = loadflow(bus,line,1e-9,10, ...
} 
lfdemo
loadflow demo program
Two-area test case with subtransient generator models
Static exciters
turbine/governors
50% constant current load
Do you need a load-flow solution report?  [y/n]n >>     y
Qg at var limit
Qg at var limit
inner ac load flow failed to converge after 10 iterations
at tap iteration number 1
voltage low changing tap on line
     3

taps reset to

tap =

    0.9688

voltage low changing tap on line
    12

taps reset to

tap =

    0.9626

Qg at var limit
Qg at var limit
inner ac load flow failed to converge after 10 iterations
at tap iteration number 2
voltage high changing tap on line
     3

tap reset to

tap =

    0.9750

voltage low changing tap on line
    12

taps reset to

tap =

    0.9563

Qg at var limit
Qg at var limit
inner ac load flow failed to converge after 10 iterations
at tap iteration number 3
voltage low changing tap on line
     3

taps reset to

tap =

    0.9688

voltage low changing tap on line
    12

taps reset to

tap =

    0.9501

Qg at var limit
Qg at var limit
inner ac load flow failed to converge after 10 iterations
at tap iteration number 4
voltage high changing tap on line
     3

tap reset to

tap =

    0.9750

voltage low changing tap on line
    12

taps reset to

tap =

    0.9438

Qg at var limit
Qg at var limit
inner ac load flow failed to converge after 10 iterations
at tap iteration number 5
voltage low changing tap on line
     3

taps reset to

tap =

    0.9688

voltage low changing tap on line
    12

taps reset to

tap =

    0.9376

Qg at var limit
Qg at var limit
inner ac load flow failed to converge after 10 iterations
at tap iteration number 6
voltage low changing tap on line
     3

taps reset to

tap =

    0.9625

voltage low changing tap on line
    12

taps reset to

tap =

    0.9313

Qg at var limit
Qg at var limit
inner ac load flow failed to converge after 10 iterations
at tap iteration number 7
voltage low changing tap on line
    12

taps reset to

tap =

    0.9251

Qg at var limit
Qg at var limit
inner ac load flow failed to converge after 10 iterations
at tap iteration number 8
voltage low changing tap on line
     3

taps reset to

tap =

    0.9563

voltage low changing tap on line
    12

taps reset to

tap =

    0.9188

Qg at var limit
Qg at var limit
inner ac load flow failed to converge after 10 iterations
at tap iteration number 9
voltage high changing tap on line
     3

tap reset to

tap =

    0.9625

voltage low changing tap on line
    12

taps reset to

tap =

    0.9126

Qg at var limit
Qg at var limit
inner ac load flow failed to converge after 10 iterations
at tap iteration number 10
voltage low changing tap on line
    12

taps reset to

tap =

    0.9063

tap iteration failed to converge after10 iterations
voltages at

ans =

    11    12    14

are at the min limit
the following generators are at their var limits
    bus#    Qg
    2.0000   -0.2163
   11.0000   16.2779
   12.0000   22.2530

ac load flow failed to converge
{Error using <a href="matlab:helpUtils.errorDocCallback('loadflow', 'C:\Users\Admin\Documents\School\ltv_pss_paper\pst_archive\pstv3\loadflow.m', 297)" style="font-weight:bold">loadflow</a> (<a href="matlab: opentoline('C:\Users\Admin\Documents\School\ltv_pss_paper\pst_archive\pstv3\loadflow.m',297,0)">line 297</a>)
stop

Error in <a href="matlab:helpUtils.errorDocCallback('lfdemo', 'C:\Users\Admin\Documents\School\ltv_pss_paper\pst_archive\pstv3\lfdemo.m', 36)" style="font-weight:bold">lfdemo</a> (<a href="matlab: opentoline('C:\Users\Admin\Documents\School\ltv_pss_paper\pst_archive\pstv3\lfdemo.m',36,0)">line 36</a>)
[bus_sol,line_sol,line_flow] = loadflow(bus,line,1e-9,10, ...
} 
d2asbegp
Two-area test case with subtransient generator models
Static exciters
turbine/governors
50% constant current load
clear all; close all; clc;
lfdemo
{Undefined function or variable 'lfdemo'.
} 
lfdemo
loadflow demo program
Two-area test case with subtransient generator models
Static exciters
turbine/governors
50% constant current load
Do you need a load-flow solution report?  [y/n]n >>     y
inner ac load flow failed to converge after 10 iterations
at tap iteration number 1
voltage low changing tap on line
     3

taps reset to

tap =

    0.9688

inner load flow iterations
     5

 tap iterations 
     2

                             LOAD-FLOW STUDY
                    REPORT OF POWER FLOW CALCULATIONS 
 
04-Oct-2017
SWING BUS                  : BUS 1 
NUMBER OF ITERATIONS       : 5 
SOLUTION TIME              : 0.015 sec.
TOTAL TIME                 : 0.047 sec.
TOTAL REAL POWER LOSSES    : 1.16304.
TOTAL REACTIVE POWER LOSSES: 19.8403.

                                      GENERATION             LOAD
       BUS     VOLTS     ANGLE      REAL  REACTIVE      REAL  REACTIVE 
    1.0000    1.0100   18.5000   13.7950    5.3309         0         0
    2.0000    1.0100  -17.0826    0.7780    4.3622         0         0
    3.0000    0.9300  -27.0972         0         0    0.0000    0.0000
    4.0000    0.9534  -30.1538         0         0    9.7600    1.0000
   10.0000    0.9497    4.6023         0         0    0.0000    0.0000
   11.0000    1.0100  -44.7993    0.7780    0.5748         0         0
   12.0000    1.0100  -33.7497   13.2220    3.0429         0         0
   13.0000    0.9741  -54.9403         0         0    0.0000   -0.0000
   14.0000    0.9966  -59.9928         0         0   17.6500    1.0000
   20.0000    0.9380  -17.8684         0         0    0.0000    0.0000
  101.0000    0.9682  -41.6214         0         0   -0.0000   -0.0000
  110.0000    1.0006  -45.5359         0         0    0.0000   -0.0000
  120.0000    0.9843  -46.5830         0         0    0.0000   -0.0000

                      LINE FLOWS                     
      LINE  FROM BUS    TO BUS      REAL  REACTIVE   
    1.0000    1.0000   10.0000   13.7950    5.3309
    2.0000    2.0000   20.0000    0.7780    4.3622
    3.0000    3.0000    4.0000    9.7600    1.5295
    4.0000    3.0000   20.0000  -13.8126    1.7592
    5.0000    3.0000  101.0000    2.0263   -0.3471
    6.0000    3.0000  101.0000    2.0263   -0.3471
    7.0000   10.0000   20.0000   13.7950    1.7502
    8.0000   11.0000  110.0000    0.7780    0.5748
    9.0000   12.0000  120.0000   13.2220    3.0429
   10.0000   13.0000  101.0000   -1.9275    0.3850
   11.0000   13.0000  101.0000   -1.9275    0.3850
   12.0000   13.0000   14.0000   17.6500    2.5734
   13.0000   13.0000  120.0000  -13.7950    1.4013
   14.0000  110.0000  120.0000    0.7780    0.5595

    1.0000   10.0000    1.0000  -13.7950   -1.7502
    2.0000   20.0000    2.0000   -0.7780   -4.0408
    3.0000    4.0000    3.0000   -9.7600   -1.0000
    4.0000   20.0000    3.0000   14.0368    0.4677
    5.0000  101.0000    3.0000   -1.9732    0.7048
    6.0000  101.0000    3.0000   -1.9732    0.7048
    7.0000   20.0000   10.0000  -13.2588    3.5731
    8.0000  110.0000   11.0000   -0.7780   -0.5595
    9.0000  120.0000   12.0000  -13.2220   -0.0293
   10.0000  101.0000   13.0000    1.9732   -0.1096
   11.0000  101.0000   13.0000    1.9732   -0.1096
   12.0000   14.0000   13.0000  -17.6500   -1.0000
   13.0000  120.0000   13.0000   13.9976    0.6083
   14.0000  120.0000  110.0000   -0.7756   -0.5790

Qg at var limit
Qg at var limit
Qg at var limit
inner ac load flow failed to converge after 10 iterations
at tap iteration number 1
voltage low changing tap on line
     3

taps reset to

tap =

    0.9688

voltage low changing tap on line
    12

taps reset to

tap =

    0.9626

Qg at var limit
Qg at var limit
Qg at var limit
inner ac load flow failed to converge after 10 iterations
at tap iteration number 2
voltage low changing tap on line
     3

taps reset to

tap =

    0.9625

voltage low changing tap on line
    12

taps reset to

tap =

    0.9563

Qg at var limit
Qg at var limit
Qg at var limit
inner ac load flow failed to converge after 10 iterations
at tap iteration number 3
voltage high changing tap on line
     3

tap reset to

tap =

    0.9688

voltage low changing tap on line
    12

taps reset to

tap =

    0.9501

Qg at var limit
Qg at var limit
Qg at var limit
inner ac load flow failed to converge after 10 iterations
at tap iteration number 4
voltage low changing tap on line
     3

taps reset to

tap =

    0.9625

voltage low changing tap on line
    12

taps reset to

tap =

    0.9438

Qg at var limit
Qg at var limit
Qg at var limit
inner ac load flow failed to converge after 10 iterations
at tap iteration number 5
voltage high changing tap on line
    12

tap reset to

tap =

    0.9501

voltage low changing tap on line
     3

taps reset to

tap =

    0.9563

Qg at var limit
Qg at var limit
Qg at var limit
inner ac load flow failed to converge after 10 iterations
at tap iteration number 6
voltage high changing tap on line
     3

tap reset to

tap =

    0.9625

voltage low changing tap on line
    12

taps reset to

tap =

    0.9438

Qg at var limit
Qg at var limit
Qg at var limit
inner ac load flow failed to converge after 10 iterations
at tap iteration number 7
voltage high changing tap on line
    12

tap reset to

tap =

    0.9501

voltage low changing tap on line
     3

taps reset to

tap =

    0.9563

Qg at var limit
Qg at var limit
Qg at var limit
inner ac load flow failed to converge after 10 iterations
at tap iteration number 8
voltage high changing tap on line
     3

tap reset to

tap =

    0.9625

voltage low changing tap on line
    12

taps reset to

tap =

    0.9438

Qg at var limit
Qg at var limit
Qg at var limit
inner ac load flow failed to converge after 10 iterations
at tap iteration number 9
voltage high changing tap on line
    12

tap reset to

tap =

    0.9501

voltage low changing tap on line
     3

taps reset to

tap =

    0.9563

Qg at var limit
Qg at var limit
Qg at var limit
inner ac load flow failed to converge after 10 iterations
at tap iteration number 10
voltage high changing tap on line
     3

tap reset to

tap =

    0.9625

voltage low changing tap on line
    12

taps reset to

tap =

    0.9438

tap iteration failed to converge after10 iterations
voltages at

ans =

     4

are at the max limit
voltages at

ans =

     2     3    10    11    12    13    14    20   110   120

are at the min limit
the following generators are at their var limits
    bus#    Qg
    2.0000   35.0986
   11.0000   30.2852
   12.0000   32.7602

ac load flow failed to converge
{Error using <a href="matlab:helpUtils.errorDocCallback('loadflow', 'C:\Users\Admin\Documents\School\ltv_pss_paper\pst_archive\pstv3\loadflow.m', 297)" style="font-weight:bold">loadflow</a> (<a href="matlab: opentoline('C:\Users\Admin\Documents\School\ltv_pss_paper\pst_archive\pstv3\loadflow.m',297,0)">line 297</a>)
stop

Error in <a href="matlab:helpUtils.errorDocCallback('lfdemo', 'C:\Users\Admin\Documents\School\ltv_pss_paper\pst_archive\pstv3\lfdemo.m', 36)" style="font-weight:bold">lfdemo</a> (<a href="matlab: opentoline('C:\Users\Admin\Documents\School\ltv_pss_paper\pst_archive\pstv3\lfdemo.m',36,0)">line 36</a>)
[bus_sol,line_sol,line_flow] = loadflow(bus,line,1e-9,10, ...
} 
clear all; close all; clc; lfdemo
loadflow demo program
Two-area test case with subtransient generator models
Static exciters
turbine/governors
50% constant current load
Do you need a load-flow solution report?  [y/n]n >>     y
inner load flow iterations
     4

 tap iterations 
     1

                             LOAD-FLOW STUDY
                    REPORT OF POWER FLOW CALCULATIONS 
 
04-Oct-2017
SWING BUS                  : BUS 1 
NUMBER OF ITERATIONS       : 4 
SOLUTION TIME              : 0.016 sec.
TOTAL TIME                 : 0.031 sec.
TOTAL REAL POWER LOSSES    : 1.12575.
TOTAL REACTIVE POWER LOSSES: 19.1228.

                                      GENERATION             LOAD
       BUS     VOLTS     ANGLE      REAL  REACTIVE      REAL  REACTIVE 
    1.0000    1.0100   18.5000   13.7578    4.8287         0         0
    2.0000    1.0100  -16.3409    0.7780    3.3537         0         0
    3.0000    0.9582  -25.9672         0         0    0.0000    0.0000
    4.0000    0.9764  -28.8820         0         0    9.7600    1.0000
   10.0000    0.9576    4.7575         0         0   -0.0000    0.0000
   11.0000    1.0100  -42.4260    0.7780    0.4554         0         0
   12.0000    1.0100  -31.4498   13.2220    2.7367         0         0
   13.0000    0.9830  -52.4813         0         0    0.0000   -0.0000
   14.0000    1.0059  -57.4418         0         0   17.6500    1.0000
   20.0000    0.9546  -17.1130         0         0   -0.0000   -0.0000
  101.0000    0.9898  -39.6695         0         0   -0.0000    0.0000
  110.0000    1.0026  -43.1612         0         0   -0.0000   -0.0000
  120.0000    0.9892  -44.2179         0         0    0.0000   -0.0000

                      LINE FLOWS                     
      LINE  FROM BUS    TO BUS      REAL  REACTIVE   
    1.0000    1.0000   10.0000   13.7578    4.8287
    2.0000    2.0000   20.0000    0.7780    3.3537
    3.0000    3.0000    4.0000    9.7600    1.5048
    4.0000    3.0000   20.0000  -13.7986    2.8075
    5.0000    3.0000  101.0000    2.0193   -0.3197
    6.0000    3.0000  101.0000    2.0193   -0.3197
    7.0000   10.0000   20.0000   13.7578    1.3483
    8.0000   11.0000  110.0000    0.7780    0.4554
    9.0000   12.0000  120.0000   13.2220    2.7367
   10.0000   13.0000  101.0000   -1.9262    0.2590
   11.0000   13.0000  101.0000   -1.9262    0.2590
   12.0000   13.0000   14.0000   17.6500    2.5444
   13.0000   13.0000  120.0000  -13.7977    1.7688
   14.0000  110.0000  120.0000    0.7780    0.4421

    1.0000   10.0000    1.0000  -13.7578   -1.3483
    2.0000   20.0000    2.0000   -0.7780   -3.1596
    3.0000    4.0000    3.0000   -9.7600   -1.0000
    4.0000   20.0000    3.0000   14.0146   -0.6636
    5.0000  101.0000    3.0000   -1.9698    0.6319
    6.0000  101.0000    3.0000   -1.9698    0.6319
    7.0000   20.0000   10.0000  -13.2366    3.8233
    8.0000  110.0000   11.0000   -0.7780   -0.4421
    9.0000  120.0000   12.0000  -13.2220    0.2479
   10.0000  101.0000   13.0000    1.9698   -0.0098
   11.0000  101.0000   13.0000    1.9698   -0.0098
   12.0000   14.0000   13.0000  -17.6500   -1.0000
   13.0000  120.0000   13.0000   13.9980    0.2171
   14.0000  120.0000  110.0000   -0.7760   -0.4650

inner load flow iterations
     4

 tap iterations 
     1

                             LOAD-FLOW STUDY
                    REPORT OF POWER FLOW CALCULATIONS 
 
04-Oct-2017
SWING BUS                  : BUS 1 
NUMBER OF ITERATIONS       : 4 
SOLUTION TIME              : 0 sec.
TOTAL TIME                 : 0.031 sec.
TOTAL REAL POWER LOSSES    : 1.09554.
TOTAL REACTIVE POWER LOSSES: 18.5189.

                                      GENERATION             LOAD
       BUS     VOLTS     ANGLE      REAL  REACTIVE      REAL  REACTIVE 
    1.0000    1.0100   18.5000   13.7275    4.3287         0         0
    2.0000    1.0100  -15.6425    0.7780    2.3310         0         0
    3.0000    0.9871  -24.9061         0         0    0.0000   -0.0000
    4.0000    1.0063  -27.6514         0         0    9.7600    1.0000
   10.0000    0.9655    4.9028         0         0    0.0000   -0.0000
   11.0000    1.0100  -40.2005    0.7780    0.3367         0         0
   12.0000    1.0100  -29.2965   13.2220    2.4326         0         0
   13.0000    0.9918  -50.1726         0         0   -0.0000   -0.0000
   14.0000    1.0151  -55.0442         0         0   17.6500    1.0000
   20.0000    0.9715  -16.4012         0         0    0.0000   -0.0000
  101.0000    1.0115  -37.8427         0         0   -0.0000   -0.0000
  110.0000    1.0045  -40.9343         0         0    0.0000   -0.0000
  120.0000    0.9941  -42.0005         0         0    0.0000    0.0000

                      LINE FLOWS                     
      LINE  FROM BUS    TO BUS      REAL  REACTIVE   
    1.0000    1.0000   10.0000   13.7275    4.3287
    2.0000    2.0000   20.0000    0.7780    2.3310
    3.0000    3.0000    4.0000    9.7600    1.4753
    4.0000    3.0000   20.0000  -13.7864    3.9642
    5.0000    3.0000  101.0000    2.0132   -0.2836
    6.0000    3.0000  101.0000    2.0132   -0.2836
    7.0000   10.0000   20.0000   13.7275    0.9369
    8.0000   11.0000  110.0000    0.7780    0.3367
    9.0000   12.0000  120.0000   13.2220    2.4326
   10.0000   13.0000  101.0000   -1.9251    0.1301
   11.0000   13.0000  101.0000   -1.9251    0.1301
   12.0000   13.0000   14.0000   17.6500    2.5165
   13.0000   13.0000  120.0000  -13.7999    2.1414
   14.0000  110.0000  120.0000    0.7780    0.3250

    1.0000   10.0000    1.0000  -13.7275   -0.9369
    2.0000   20.0000    2.0000   -0.7780   -2.2321
    3.0000    4.0000    3.0000   -9.7600   -1.0000
    4.0000   20.0000    3.0000   13.9977   -1.8685
    5.0000  101.0000    3.0000   -1.9671    0.5530
    6.0000  101.0000    3.0000   -1.9671    0.5530
    7.0000   20.0000   10.0000  -13.2197    4.1006
    8.0000  110.0000   11.0000   -0.7780   -0.3250
    9.0000  120.0000   12.0000  -13.2220    0.5263
   10.0000  101.0000   13.0000    1.9671    0.0968
   11.0000  101.0000   13.0000    1.9671    0.0968
   12.0000   14.0000   13.0000  -17.6500   -1.0000
   13.0000  120.0000   13.0000   13.9982   -0.1756
   14.0000  120.0000  110.0000   -0.7762   -0.3506

inner ac load flow failed to converge after 10 iterations
at tap iteration number 1
voltage low changing tap on line
     3

taps reset to

tap =

    0.9688

inner load flow iterations
     4

 tap iterations 
     2

                             LOAD-FLOW STUDY
                    REPORT OF POWER FLOW CALCULATIONS 
 
04-Oct-2017
SWING BUS                  : BUS 1 
NUMBER OF ITERATIONS       : 4 
SOLUTION TIME              : 0 sec.
TOTAL TIME                 : 0.047 sec.
TOTAL REAL POWER LOSSES    : 1.16304.
TOTAL REACTIVE POWER LOSSES: 19.8403.

                                      GENERATION             LOAD
       BUS     VOLTS     ANGLE      REAL  REACTIVE      REAL  REACTIVE 
    1.0000    1.0100   18.5000   13.7950    5.3309         0         0
    2.0000    1.0100  -17.0826    0.7780    4.3622         0         0
    3.0000    0.9300  -27.0972         0         0    0.0000   -0.0000
    4.0000    0.9534  -30.1538         0         0    9.7600    1.0000
   10.0000    0.9497    4.6023         0         0    0.0000    0.0000
   11.0000    1.0100  -44.7993    0.7780    0.5748         0         0
   12.0000    1.0100  -33.7497   13.2220    3.0429         0         0
   13.0000    0.9741  -54.9403         0         0    0.0000   -0.0000
   14.0000    0.9966  -59.9928         0         0   17.6500    1.0000
   20.0000    0.9380  -17.8684         0         0    0.0000   -0.0000
  101.0000    0.9682  -41.6214         0         0   -0.0000   -0.0000
  110.0000    1.0006  -45.5359         0         0   -0.0000   -0.0000
  120.0000    0.9843  -46.5830         0         0   -0.0000   -0.0000

                      LINE FLOWS                     
      LINE  FROM BUS    TO BUS      REAL  REACTIVE   
    1.0000    1.0000   10.0000   13.7950    5.3309
    2.0000    2.0000   20.0000    0.7780    4.3622
    3.0000    3.0000    4.0000    9.7600    1.5295
    4.0000    3.0000   20.0000  -13.8126    1.7592
    5.0000    3.0000  101.0000    2.0263   -0.3471
    6.0000    3.0000  101.0000    2.0263   -0.3471
    7.0000   10.0000   20.0000   13.7950    1.7502
    8.0000   11.0000  110.0000    0.7780    0.5748
    9.0000   12.0000  120.0000   13.2220    3.0429
   10.0000   13.0000  101.0000   -1.9275    0.3850
   11.0000   13.0000  101.0000   -1.9275    0.3850
   12.0000   13.0000   14.0000   17.6500    2.5734
   13.0000   13.0000  120.0000  -13.7950    1.4013
   14.0000  110.0000  120.0000    0.7780    0.5595

    1.0000   10.0000    1.0000  -13.7950   -1.7502
    2.0000   20.0000    2.0000   -0.7780   -4.0408
    3.0000    4.0000    3.0000   -9.7600   -1.0000
    4.0000   20.0000    3.0000   14.0368    0.4677
    5.0000  101.0000    3.0000   -1.9732    0.7048
    6.0000  101.0000    3.0000   -1.9732    0.7048
    7.0000   20.0000   10.0000  -13.2588    3.5731
    8.0000  110.0000   11.0000   -0.7780   -0.5595
    9.0000  120.0000   12.0000  -13.2220   -0.0293
   10.0000  101.0000   13.0000    1.9732   -0.1096
   11.0000  101.0000   13.0000    1.9732   -0.1096
   12.0000   14.0000   13.0000  -17.6500   -1.0000
   13.0000  120.0000   13.0000   13.9976    0.6083
   14.0000  120.0000  110.0000   -0.7756   -0.5790

inner load flow iterations
     2

 tap iterations 
     1

                             LOAD-FLOW STUDY
                    REPORT OF POWER FLOW CALCULATIONS 
 
04-Oct-2017
SWING BUS                  : BUS 1 
NUMBER OF ITERATIONS       : 2 
SOLUTION TIME              : 0 sec.
TOTAL TIME                 : 0.031 sec.
TOTAL REAL POWER LOSSES    : 1.09554.
TOTAL REACTIVE POWER LOSSES: 18.5189.

                                      GENERATION             LOAD
       BUS     VOLTS     ANGLE      REAL  REACTIVE      REAL  REACTIVE 
    1.0000    1.0100   18.5000   13.7275    4.3287         0         0
    2.0000    1.0100  -15.6425    0.7780    2.3310         0         0
    3.0000    0.9871  -24.9061         0         0   -0.0000    0.0000
    4.0000    1.0063  -27.6514         0         0    9.7600    1.0000
   10.0000    0.9655    4.9028         0         0    0.0000   -0.0000
   11.0000    1.0100  -40.2005    0.7780    0.3367         0         0
   12.0000    1.0100  -29.2965   13.2220    2.4326         0         0
   13.0000    0.9918  -50.1726         0         0   -0.0000   -0.0000
   14.0000    1.0151  -55.0442         0         0   17.6500    1.0000
   20.0000    0.9715  -16.4012         0         0         0         0
  101.0000    1.0115  -37.8427         0         0    0.0000    0.0000
  110.0000    1.0045  -40.9343         0         0   -0.0000    0.0000
  120.0000    0.9941  -42.0005         0         0    0.0000    0.0000

                      LINE FLOWS                     
      LINE  FROM BUS    TO BUS      REAL  REACTIVE   
    1.0000    1.0000   10.0000   13.7275    4.3287
    2.0000    2.0000   20.0000    0.7780    2.3310
    3.0000    3.0000    4.0000    9.7600    1.4753
    4.0000    3.0000   20.0000  -13.7864    3.9642
    5.0000    3.0000  101.0000    2.0132   -0.2836
    6.0000    3.0000  101.0000    2.0132   -0.2836
    7.0000   10.0000   20.0000   13.7275    0.9369
    8.0000   11.0000  110.0000    0.7780    0.3367
    9.0000   12.0000  120.0000   13.2220    2.4326
   10.0000   13.0000  101.0000   -1.9251    0.1301
   11.0000   13.0000  101.0000   -1.9251    0.1301
   12.0000   13.0000   14.0000   17.6500    2.5165
   13.0000   13.0000  120.0000  -13.7999    2.1414
   14.0000  110.0000  120.0000    0.7780    0.3250

    1.0000   10.0000    1.0000  -13.7275   -0.9369
    2.0000   20.0000    2.0000   -0.7780   -2.2321
    3.0000    4.0000    3.0000   -9.7600   -1.0000
    4.0000   20.0000    3.0000   13.9977   -1.8685
    5.0000  101.0000    3.0000   -1.9671    0.5530
    6.0000  101.0000    3.0000   -1.9671    0.5530
    7.0000   20.0000   10.0000  -13.2197    4.1006
    8.0000  110.0000   11.0000   -0.7780   -0.3250
    9.0000  120.0000   12.0000  -13.2220    0.5263
   10.0000  101.0000   13.0000    1.9671    0.0968
   11.0000  101.0000   13.0000    1.9671    0.0968
   12.0000   14.0000   13.0000  -17.6500   -1.0000
   13.0000  120.0000   13.0000   13.9982   -0.1756
   14.0000  120.0000  110.0000   -0.7762   -0.3506

Qg at var limit
Qg at var limit
inner ac load flow failed to converge after 10 iterations
at tap iteration number 1
voltage high changing tap on line
    12

tap reset to

tap =

    0.9750

voltage low changing tap on line
     3

taps reset to

tap =

    0.9688

Qg at var limit
Qg at var limit
Qg at var limit
inner ac load flow failed to converge after 10 iterations
at tap iteration number 2
voltage low changing tap on line
     3

taps reset to

tap =

    0.9625

voltage low changing tap on line
    12

taps reset to

tap =

    0.9688

Qg at var limit
inner ac load flow failed to converge after 10 iterations
at tap iteration number 3
voltage low changing tap on line
     3

taps reset to

tap =

    0.9563

voltage low changing tap on line
    12

taps reset to

tap =

    0.9626

Qg at var limit
inner ac load flow failed to converge after 10 iterations
at tap iteration number 4
voltage low changing tap on line
     3

taps reset to

tap =

    0.9500

voltage low changing tap on line
    12

taps reset to

tap =

    0.9563

Qg at var limit
Qg at var limit
inner ac load flow failed to converge after 10 iterations
at tap iteration number 5
voltage low changing tap on line
     3

taps reset to

tap =

    0.9438

voltage low changing tap on line
    12

taps reset to

tap =

    0.9501

Qg at var limit
inner ac load flow failed to converge after 10 iterations
at tap iteration number 6
voltage low changing tap on line
     3

taps reset to

tap =

    0.9375

voltage low changing tap on line
    12

taps reset to

tap =

    0.9438

Qg at var limit
inner ac load flow failed to converge after 10 iterations
at tap iteration number 7
voltage low changing tap on line
     3

taps reset to

tap =

    0.9313

Qg at var limit
Qg at var limit
inner ac load flow failed to converge after 10 iterations
at tap iteration number 8
voltage high changing tap on line
     3

tap reset to

tap =

    0.9375

voltage high changing tap on line
    12

tap reset to

tap =

    0.9501

Qg at var limit
inner ac load flow failed to converge after 10 iterations
at tap iteration number 9
voltage high changing tap on line
     3

tap reset to

tap =

    0.9438

voltage high changing tap on line
    12

tap reset to

tap =

    0.9563

Qg at var limit
Qg at var limit
inner ac load flow failed to converge after 10 iterations
at tap iteration number 10
voltage low changing tap on line
     3

taps reset to

tap =

    0.9375

voltage low changing tap on line
    12

taps reset to

tap =

    0.9501

tap iteration failed to converge after10 iterations
voltages at

ans =

    11   110

are at the max limit
voltages at

ans =

     2     3     4    10    12    14    20   101

are at the min limit
the following generators are at their var limits
    bus#    Qg
    2.0000   21.5586
   11.0000    8.6992
   12.0000   78.4933

ac load flow failed to converge
{Error using <a href="matlab:helpUtils.errorDocCallback('loadflow', 'C:\Users\Admin\Documents\School\ltv_pss_paper\pst_archive\pstv3\loadflow.m', 297)" style="font-weight:bold">loadflow</a> (<a href="matlab: opentoline('C:\Users\Admin\Documents\School\ltv_pss_paper\pst_archive\pstv3\loadflow.m',297,0)">line 297</a>)
stop

Error in <a href="matlab:helpUtils.errorDocCallback('lfdemo', 'C:\Users\Admin\Documents\School\ltv_pss_paper\pst_archive\pstv3\lfdemo.m', 36)" style="font-weight:bold">lfdemo</a> (<a href="matlab: opentoline('C:\Users\Admin\Documents\School\ltv_pss_paper\pst_archive\pstv3\lfdemo.m',36,0)">line 36</a>)
[bus_sol,line_sol,line_flow] = loadflow(bus,line,1e-9,10, ...
} 
clear all; close all; clc; lfdemo
loadflow demo program
Two-area test case with subtransient generator models
Static exciters
turbine/governors
50% constant current load
Do you need a load-flow solution report?  [y/n]n >>     y
inner load flow iterations
     2

 tap iterations 
     1

                             LOAD-FLOW STUDY
                    REPORT OF POWER FLOW CALCULATIONS 
 
04-Oct-2017
SWING BUS                  : BUS 1 
NUMBER OF ITERATIONS       : 2 
SOLUTION TIME              : 0 sec.
TOTAL TIME                 : 0.031 sec.
TOTAL REAL POWER LOSSES    : 1.09554.
TOTAL REACTIVE POWER LOSSES: 18.5189.

                                      GENERATION             LOAD
       BUS     VOLTS     ANGLE      REAL  REACTIVE      REAL  REACTIVE 
    1.0000    1.0100   18.5000   13.7275    4.3287         0         0
    2.0000    1.0100  -15.6425    0.7780    2.3310         0         0
    3.0000    0.9871  -24.9061         0         0   -0.0000    0.0000
    4.0000    1.0063  -27.6514         0         0    9.7600    1.0000
   10.0000    0.9655    4.9028         0         0    0.0000   -0.0000
   11.0000    1.0100  -40.2005    0.7780    0.3367         0         0
   12.0000    1.0100  -29.2965   13.2220    2.4326         0         0
   13.0000    0.9918  -50.1726         0         0   -0.0000   -0.0000
   14.0000    1.0151  -55.0442         0         0   17.6500    1.0000
   20.0000    0.9715  -16.4012         0         0         0         0
  101.0000    1.0115  -37.8427         0         0    0.0000    0.0000
  110.0000    1.0045  -40.9343         0         0   -0.0000    0.0000
  120.0000    0.9941  -42.0005         0         0    0.0000    0.0000

                      LINE FLOWS                     
      LINE  FROM BUS    TO BUS      REAL  REACTIVE   
    1.0000    1.0000   10.0000   13.7275    4.3287
    2.0000    2.0000   20.0000    0.7780    2.3310
    3.0000    3.0000    4.0000    9.7600    1.4753
    4.0000    3.0000   20.0000  -13.7864    3.9642
    5.0000    3.0000  101.0000    2.0132   -0.2836
    6.0000    3.0000  101.0000    2.0132   -0.2836
    7.0000   10.0000   20.0000   13.7275    0.9369
    8.0000   11.0000  110.0000    0.7780    0.3367
    9.0000   12.0000  120.0000   13.2220    2.4326
   10.0000   13.0000  101.0000   -1.9251    0.1301
   11.0000   13.0000  101.0000   -1.9251    0.1301
   12.0000   13.0000   14.0000   17.6500    2.5165
   13.0000   13.0000  120.0000  -13.7999    2.1414
   14.0000  110.0000  120.0000    0.7780    0.3250

    1.0000   10.0000    1.0000  -13.7275   -0.9369
    2.0000   20.0000    2.0000   -0.7780   -2.2321
    3.0000    4.0000    3.0000   -9.7600   -1.0000
    4.0000   20.0000    3.0000   13.9977   -1.8685
    5.0000  101.0000    3.0000   -1.9671    0.5530
    6.0000  101.0000    3.0000   -1.9671    0.5530
    7.0000   20.0000   10.0000  -13.2197    4.1006
    8.0000  110.0000   11.0000   -0.7780   -0.3250
    9.0000  120.0000   12.0000  -13.2220    0.5263
   10.0000  101.0000   13.0000    1.9671    0.0968
   11.0000  101.0000   13.0000    1.9671    0.0968
   12.0000   14.0000   13.0000  -17.6500   -1.0000
   13.0000  120.0000   13.0000   13.9982   -0.1756
   14.0000  120.0000  110.0000   -0.7762   -0.3506

inner load flow iterations
     3

 tap iterations 
     1

                             LOAD-FLOW STUDY
                    REPORT OF POWER FLOW CALCULATIONS 
 
04-Oct-2017
SWING BUS                  : BUS 1 
NUMBER OF ITERATIONS       : 3 
SOLUTION TIME              : 0.015 sec.
TOTAL TIME                 : 0.035 sec.
TOTAL REAL POWER LOSSES    : 1.08317.
TOTAL REACTIVE POWER LOSSES: 18.2635.

                                      GENERATION             LOAD
       BUS     VOLTS     ANGLE      REAL  REACTIVE      REAL  REACTIVE 
    1.0000    1.0100   18.5000   13.7152    4.0799         0         0
    2.0000    1.0100  -15.3097    0.7780    1.8154         0         0
    3.0000    1.0018  -24.4013         0         0    0.0000   -0.0000
    4.0000    1.0215  -27.0664         0         0    9.7600    1.0000
   10.0000    0.9694    4.9717         0         0    0.0000   -0.0000
   11.0000    1.0100  -39.1421    0.7780    0.2778         0         0
   12.0000    1.0100  -28.2736   13.2220    2.2815         0         0
   13.0000    0.9962  -49.0735         0         0   -0.0000   -0.0000
   14.0000    1.0197  -53.9017         0         0   17.6500    1.0000
   20.0000    0.9801  -16.0617         0         0    0.0000   -0.0000
  101.0000    1.0224  -36.9753         0         0   -0.0000   -0.0000
  110.0000    1.0055  -39.8751         0         0   -0.0000    0.0000
  120.0000    0.9966  -40.9461         0         0    0.0000   -0.0000

                      LINE FLOWS                     
      LINE  FROM BUS    TO BUS      REAL  REACTIVE   
    1.0000    1.0000   10.0000   13.7152    4.0799
    2.0000    2.0000   20.0000    0.7780    1.8154
    3.0000    3.0000    4.0000    9.7600    1.4613
    4.0000    3.0000   20.0000  -13.7810    4.5830
    5.0000    3.0000  101.0000    2.0105   -0.2623
    6.0000    3.0000  101.0000    2.0105   -0.2623
    7.0000   10.0000   20.0000   13.7152    0.7279
    8.0000   11.0000  110.0000    0.7780    0.2778
    9.0000   12.0000  120.0000   13.2220    2.2815
   10.0000   13.0000  101.0000   -1.9246    0.0647
   11.0000   13.0000  101.0000   -1.9246    0.0647
   12.0000   13.0000   14.0000   17.6500    2.5029
   13.0000   13.0000  120.0000  -13.8009    2.3294
   14.0000  110.0000  120.0000    0.7780    0.2666

    1.0000   10.0000    1.0000  -13.7152   -0.7279
    2.0000   20.0000    2.0000   -0.7780   -1.7516
    3.0000    4.0000    3.0000   -9.7600   -1.0000
    4.0000   20.0000    3.0000   13.9913   -2.4977
    5.0000  101.0000    3.0000   -1.9659    0.5112
    6.0000  101.0000    3.0000   -1.9659    0.5112
    7.0000   20.0000   10.0000  -13.2133    4.2493
    8.0000  110.0000   11.0000   -0.7780   -0.2666
    9.0000  120.0000   12.0000  -13.2220    0.6657
   10.0000  101.0000   13.0000    1.9659    0.1526
   11.0000  101.0000   13.0000    1.9659    0.1526
   12.0000   14.0000   13.0000  -17.6500   -1.0000
   13.0000  120.0000   13.0000   13.9983   -0.3724
   14.0000  120.0000  110.0000   -0.7763   -0.2933

inner load flow iterations
     4

 tap iterations 
     1

                             LOAD-FLOW STUDY
                    REPORT OF POWER FLOW CALCULATIONS 
 
04-Oct-2017
SWING BUS                  : BUS 1 
NUMBER OF ITERATIONS       : 4 
SOLUTION TIME              : 0.016 sec.
TOTAL TIME                 : 0.031 sec.
TOTAL REAL POWER LOSSES    : 1.07284.
TOTAL REACTIVE POWER LOSSES: 18.038.

                                      GENERATION             LOAD
       BUS     VOLTS     ANGLE      REAL  REACTIVE      REAL  REACTIVE 
    1.0000    1.0100   18.5000   13.7048    3.8367         0         0
    2.0000    1.0100  -14.9934    0.7780    1.3070         0         0
    3.0000    1.0163  -23.9223         0         0   -0.0000   -0.0000
    4.0000    1.0389  -26.5053         0         0    9.7600    0.5000
   10.0000    0.9733    5.0369         0         0   -0.0000    0.0000
   11.0000    1.0100  -38.1375    0.7780    0.2201         0         0
   12.0000    1.0100  -27.3036   13.2220    2.1338         0         0
   13.0000    1.0004  -48.0296         0         0    0.0000    0.0000
   14.0000    1.0242  -52.8160         0         0   17.6500    1.0000
   20.0000    0.9885  -15.7391         0         0   -0.0000   -0.0000
  101.0000    1.0331  -36.1531         0         0    0.0000    0.0000
  110.0000    1.0064  -38.8698         0         0   -0.0000   -0.0000
  120.0000    0.9989  -39.9453         0         0    0.0000   -0.0000

                      LINE FLOWS                     
      LINE  FROM BUS    TO BUS      REAL  REACTIVE   
    1.0000    1.0000   10.0000   13.7048    3.8367
    2.0000    2.0000   20.0000    0.7780    1.3070
    3.0000    3.0000    4.0000    9.7600    0.9425
    4.0000    3.0000   20.0000  -13.7762    5.2167
    5.0000    3.0000  101.0000    2.0081   -0.2394
    6.0000    3.0000  101.0000    2.0081   -0.2394
    7.0000   10.0000   20.0000   13.7048    0.5209
    8.0000   11.0000  110.0000    0.7780    0.2201
    9.0000   12.0000  120.0000   13.2220    2.1338
   10.0000   13.0000  101.0000   -1.9242   -0.0001
   11.0000   13.0000  101.0000   -1.9242   -0.0001
   12.0000   13.0000   14.0000   17.6500    2.4897
   13.0000   13.0000  120.0000  -13.8017    2.5150
   14.0000  110.0000  120.0000    0.7780    0.2094

    1.0000   10.0000    1.0000  -13.7048   -0.5209
    2.0000   20.0000    2.0000   -0.7780   -1.2692
    3.0000    4.0000    3.0000   -9.7600   -0.5000
    4.0000   20.0000    3.0000   13.9864   -3.1323
    5.0000  101.0000    3.0000   -1.9649    0.4688
    6.0000  101.0000    3.0000   -1.9649    0.4688
    7.0000   20.0000   10.0000  -13.2084    4.4015
    8.0000  110.0000   11.0000   -0.7780   -0.2094
    9.0000  120.0000   12.0000  -13.2220    0.8027
   10.0000  101.0000   13.0000    1.9649    0.2090
   11.0000  101.0000   13.0000    1.9649    0.2090
   12.0000   14.0000   13.0000  -17.6500   -1.0000
   13.0000  120.0000   13.0000   13.9984   -0.5656
   14.0000  120.0000  110.0000   -0.7764   -0.2371

inner load flow iterations
     3

 tap iterations 
     1

                             LOAD-FLOW STUDY
                    REPORT OF POWER FLOW CALCULATIONS 
 
04-Oct-2017
SWING BUS                  : BUS 1 
NUMBER OF ITERATIONS       : 3 
SOLUTION TIME              : 0 sec.
TOTAL TIME                 : 0.031 sec.
TOTAL REAL POWER LOSSES    : 1.08308.
TOTAL REACTIVE POWER LOSSES: 18.2559.

                                      GENERATION             LOAD
       BUS     VOLTS     ANGLE      REAL  REACTIVE      REAL  REACTIVE 
    1.0000    1.0100   18.5000   13.7151    4.0780         0         0
    2.0000    1.0100  -15.3071    0.7780    1.8114         0         0
    3.0000    1.0019  -24.3975         0         0    0.0000   -0.0000
    4.0000    1.0240  -27.0555         0         0    9.7600    0.5000
   10.0000    0.9695    4.9723         0         0    0.0000   -0.0000
   11.0000    1.0100  -39.1340    0.7780    0.2773         0         0
   12.0000    1.0100  -28.2658   13.2220    2.2803         0         0
   13.0000    0.9962  -49.0651         0         0   -0.0000    0.0000
   14.0000    1.0197  -53.8930         0         0   17.6500    1.0000
   20.0000    0.9801  -16.0591         0         0    0.0000   -0.0000
  101.0000    1.0225  -36.9687         0         0   -0.0000   -0.0000
  110.0000    1.0055  -39.8671         0         0   -0.0000    0.0000
  120.0000    0.9966  -40.9380         0         0    0.0000   -0.0000

                      LINE FLOWS                     
      LINE  FROM BUS    TO BUS      REAL  REACTIVE   
    1.0000    1.0000   10.0000   13.7151    4.0780
    2.0000    2.0000   20.0000    0.7780    1.8114
    3.0000    3.0000    4.0000    9.7600    0.9554
    4.0000    3.0000   20.0000  -13.7810    4.5879
    5.0000    3.0000  101.0000    2.0105   -0.2622
    6.0000    3.0000  101.0000    2.0105   -0.2622
    7.0000   10.0000   20.0000   13.7151    0.7263
    8.0000   11.0000  110.0000    0.7780    0.2773
    9.0000   12.0000  120.0000   13.2220    2.2803
   10.0000   13.0000  101.0000   -1.9246    0.0642
   11.0000   13.0000  101.0000   -1.9246    0.0642
   12.0000   13.0000   14.0000   17.6500    2.5027
   13.0000   13.0000  120.0000  -13.8009    2.3309
   14.0000  110.0000  120.0000    0.7780    0.2661

    1.0000   10.0000    1.0000  -13.7151   -0.7263
    2.0000   20.0000    2.0000   -0.7780   -1.7478
    3.0000    4.0000    3.0000   -9.7600   -0.5000
    4.0000   20.0000    3.0000   13.9913   -2.5027
    5.0000  101.0000    3.0000   -1.9659    0.5109
    6.0000  101.0000    3.0000   -1.9659    0.5109
    7.0000   20.0000   10.0000  -13.2133    4.2504
    8.0000  110.0000   11.0000   -0.7780   -0.2661
    9.0000  120.0000   12.0000  -13.2220    0.6668
   10.0000  101.0000   13.0000    1.9659    0.1530
   11.0000  101.0000   13.0000    1.9659    0.1530
   12.0000   14.0000   13.0000  -17.6500   -1.0000
   13.0000  120.0000   13.0000   13.9983   -0.3739
   14.0000  120.0000  110.0000   -0.7763   -0.2929

inner load flow iterations
     3

 tap iterations 
     1

                             LOAD-FLOW STUDY
                    REPORT OF POWER FLOW CALCULATIONS 
 
04-Oct-2017
SWING BUS                  : BUS 2 
NUMBER OF ITERATIONS       : 3 
SOLUTION TIME              : 0.016 sec.
TOTAL TIME                 : 0.031 sec.
TOTAL REAL POWER LOSSES    : 0.851084.
TOTAL REACTIVE POWER LOSSES: 13.0916.

                                      GENERATION             LOAD
       BUS     VOLTS     ANGLE      REAL  REACTIVE      REAL  REACTIVE 
    1.0000    1.0100   18.5016    7.2615    1.2713         0         0
    2.0000    1.0100    7.7250    6.9996    1.9421         0         0
    3.0000    0.9791   -7.4402         0         0    0.0000    0.0000
    4.0000    0.9980  -10.2312         0         0    9.7600    1.0000
   10.0000    0.9962   11.5795         0         0   -0.0000   -0.0000
   11.0000    1.0100   -9.0121    7.0000    1.1342         0         0
   12.0000    1.0100  -19.1199    7.0000    1.7631         0         0
   13.0000    0.9833  -34.0626         0         0   -0.0000   -0.0000
   14.0000    1.0062  -39.0200         0         0   17.6500    1.0000
   20.0000    0.9847    0.9753         0         0    0.0000    0.0000
  101.0000    1.0003  -21.0535         0         0    0.0000   -0.0000
  110.0000    0.9980  -15.6721         0         0         0         0
  120.0000    0.9877  -25.8498         0         0   -0.0000   -0.0000

                      LINE FLOWS                     
      LINE  FROM BUS    TO BUS      REAL  REACTIVE   
    1.0000    1.0000   10.0000    7.2615    1.2713
    2.0000    2.0000   20.0000    6.9996    1.9421
    3.0000    3.0000    4.0000    9.7600    1.4832
    4.0000    3.0000   20.0000  -13.9220    1.8714
    5.0000    3.0000  101.0000    2.0810   -0.2394
    6.0000    3.0000  101.0000    2.0810   -0.2394
    7.0000   10.0000   20.0000    7.2615    0.3817
    8.0000   11.0000  110.0000    7.0000    1.1342
    9.0000   12.0000  120.0000    7.0000    1.7631
   10.0000   13.0000  101.0000   -1.9853    0.1825
   11.0000   13.0000  101.0000   -1.9853    0.1825
   12.0000   13.0000   14.0000   17.6500    2.5435
   13.0000   13.0000  120.0000  -13.6793    1.9258
   14.0000  110.0000  120.0000    7.0000    0.3109

    1.0000   10.0000    1.0000   -7.2615   -0.3817
    2.0000   20.0000    2.0000   -6.9996   -1.0782
    3.0000    4.0000    3.0000   -9.7600   -1.0000
    4.0000   20.0000    3.0000   14.1279    0.1705
    5.0000  101.0000    3.0000   -2.0310    0.5502
    6.0000  101.0000    3.0000   -2.0310    0.5502
    7.0000   20.0000   10.0000   -7.1283    0.9078
    8.0000  110.0000   11.0000   -7.0000   -0.3109
    9.0000  120.0000   12.0000   -7.0000   -0.9100
   10.0000  101.0000   13.0000    2.0310    0.0852
   11.0000  101.0000   13.0000    2.0310    0.0852
   12.0000   14.0000   13.0000  -17.6500   -1.0000
   13.0000  120.0000   13.0000   13.8767    0.0313
   14.0000  120.0000  110.0000   -6.8767    0.8787

inner load flow iterations
     4

 tap iterations 
     1

                             LOAD-FLOW STUDY
                    REPORT OF POWER FLOW CALCULATIONS 
 
04-Oct-2017
SWING BUS                  : BUS 2 
NUMBER OF ITERATIONS       : 4 
SOLUTION TIME              : 0.015 sec.
TOTAL TIME                 : 0.031 sec.
TOTAL REAL POWER LOSSES    : 0.832812.
TOTAL REACTIVE POWER LOSSES: 12.7485.

                                      GENERATION             LOAD
       BUS     VOLTS     ANGLE      REAL  REACTIVE      REAL  REACTIVE 
    1.0000    1.0100   18.4078    7.2615    0.9068         0         0
    2.0000    1.0100    7.7250    6.9813    1.0491         0         0
    3.0000    1.0053   -7.0401         0         0    0.0000    0.0000
    4.0000    1.0251   -9.6864         0         0    9.7600    1.0000
   10.0000    1.0022   11.5272         0         0    0.0000    0.0000
   11.0000    1.0100   -7.6305    7.0000    1.0234         0         0
   12.0000    1.0100  -17.7073    7.0000    1.4918         0         0
   13.0000    0.9913  -32.5375         0         0   -0.0000   -0.0000
   14.0000    1.0146  -37.4141         0         0   17.6500    1.0000
   20.0000    0.9993    1.0920         0         0   -0.0000   -0.0000
  101.0000    1.0201  -19.9710         0         0    0.0000   -0.0000
  110.0000    0.9998  -14.2783         0         0    0.0000   -0.0000
  120.0000    0.9921  -24.4069         0         0   -0.0000    0.0000

                      LINE FLOWS                     
      LINE  FROM BUS    TO BUS      REAL  REACTIVE   
    1.0000    1.0000   10.0000    7.2615    0.9068
    2.0000    2.0000   20.0000    6.9813    1.0491
    3.0000    3.0000    4.0000    9.7600    1.4580
    4.0000    3.0000   20.0000  -13.9112    2.9918
    5.0000    3.0000  101.0000    2.0756   -0.2036
...